<additional>
    <edgeData id="limaRouXml" file="duarouter.edgesinfo.xml" freq="60"/>
</additional>