<nodes>
   <node id="1" x="25586.055685853586" y="-22994.87552697491"/>
   <node id="2" x="25734.397501571104" y="-22972.723007353954"/>
   <node id="3" x="25850.734038103372" y="-22959.168754617684"/>
   <node id="4" x="25887.800196576864" y="-23248.103719795123"/>
   <node id="5" x="25752.56160395965" y="-23114.111835668795"/>
   <node id="6" x="25605.771180709824" y="-23145.42379945144"/>
   <node id="7" x="25620.735171902925" y="-23287.672479974106"/>
   <node id="8" x="25774.937626017258" y="-23264.20659400616"/>
   <node id="9" x="26065.824026526883" y="-23453.325419202447"/>
   <node id="10" x="25789.99463196844" y="-23424.972142107785"/>
   <node id="11" x="25662.349375896156" y="-23443.596183084883"/>
   <node id="12" x="25667.555585818365" y="-23600.074293622747"/>
   <node id="13" x="25819.613712385297" y="-23580.114389097318"/>
   <node id="14" x="25505.707879960537" y="-22468.32481888309"/>
   <node id="15" x="25685.75977117382" y="-22542.7965168152"/>
   <node id="16" x="24784.357397036627" y="-20653.37864746712"/>
   <node id="17" x="25239.773262761533" y="-20276.398787767626"/>
   <node id="18" x="21535.186010746285" y="-20932.998756014742"/>
   <node id="19" x="25219.67852176726" y="-20946.31810401939"/>
   <node id="20" x="25638.34465883486" y="-20884.040509325452"/>
   <node id="21" x="25763.28857083805" y="-21691.93651978951"/>
   <node id="22" x="25315.291740251705" y="-21686.97357523814"/>
   <node id="23" x="24977.569986712188" y="-21688.338463706896"/>
   <node id="24" x="21975.70902674459" y="-18510.40328523703"/>
   <node id="25" x="23898.22737877257" y="-17414.622628600337"/>
   <node id="26" x="25171.427782515064" y="-17099.221702430397"/>
   <node id="27" x="26840.963509930298" y="-16894.988881320693"/>
   <node id="28" x="25334.357538776472" y="-18720.643578851596"/>
   <node id="29" x="24157.88768315874" y="-18883.244326945394"/>
   <node id="30" x="19749.7829389181" y="-17179.015474537387"/>
   <node id="31" x="21652.73556973785" y="-16915.975857338868"/>
   <node id="32" x="23189.122560070828" y="-15939.19404817"/>
   <node id="33" x="25823.13559914753" y="-15328.588980518281"/>
   <node id="34" x="26090.756814872846" y="-22292.872439878993"/>
   <node id="35" x="26258.019877176732" y="-22829.730628789403"/>
   <node id="36" x="26084.55155199766" y="-20662.853820953518"/>
   <node id="37" x="25971.006141513586" y="-21499.473545271903"/>
   <node id="38" x="26531.804641952738" y="-21416.108748774976"/>
   <node id="39" x="27368.010286144912" y="-20316.497629852965"/>
   <node id="40" x="27335.72970723547" y="-21758.982110105455"/>
   <node id="41" x="21267.994062317535" y="-24233.259681224823"/>
   <node id="42" x="27051.21406104043" y="-22715.85461600311"/>
   <node id="43" x="26765.79415212758" y="-18727.22870937921"/>
   <node id="44" x="29336.00635624677" y="-19097.86446939595"/>
   <node id="45" x="30437.84145043604" y="-19509.657305672765"/>
   <node id="46" x="29791.70833887346" y="-20974.650494609028"/>
   <node id="47" x="28466.560953678563" y="-15432.298263372853"/>
   <node id="48" x="31470.081546586007" y="-14250.881594826467"/>
   <node id="49" x="32654.679258977994" y="-15837.926928014494"/>
   <node id="50" x="32887.563667897135" y="-17612.61451166123"/>
   <node id="51" x="33208.602985167876" y="-18997.008812783286"/>
   <node id="52" x="31496.003239169717" y="-21298.645748170093"/>
   <node id="53" x="26392.35306201689" y="-23102.081676525995"/>
   <node id="54" x="26127.27662170492" y="-23367.148484654725"/>
   <node id="55" x="26693.22707063146" y="-23779.501134702004"/>
   <node id="56" x="27167.715795090422" y="-24046.947185636498"/>
   <node id="57" x="27375.92808621563" y="-23068.826427364722"/>
   <node id="58" x="27969.720844155177" y="-23611.50680674985"/>
   <node id="59" x="27335.0886214599" y="-23524.64009255357"/>
   <node id="60" x="27708.185443231836" y="-24290.898771316744"/>
   <node id="61" x="28101.702508071437" y="-24295.743820209987"/>
   <node id="62" x="28030.639277059585" y="-25329.341489119455"/>
   <node id="63" x="29237.483458098024" y="-23731.489269932732"/>
   <node id="64" x="32311.909326935187" y="-22535.3485722756"/>
   <node id="65" x="32341.382345328107" y="-24375.051411209628"/>
   <node id="66" x="29007.09591996111" y="-23994.697168220766"/>
   <node id="67" x="28654.402134889737" y="-24487.990469553508"/>
   <node id="68" x="29927.974158685654" y="-24159.08203329332"/>
   <node id="69" x="29321.001499639824" y="-26296.098435491323"/>
   <node id="70" x="32666.461499132216" y="-26164.118604167365"/>
   <node id="71" x="34003.19748064503" y="-21906.698560288176"/>
   <node id="72" x="34258.4317010995" y="-24658.739255253226"/>
   <node id="73" x="34334.05609481037" y="-28367.810802895576"/>
   <node id="74" x="25835.931041853502" y="-23712.396194851026"/>
   <node id="75" x="26044.806407209486" y="-23670.49962452147"/>
   <node id="76" x="25937.911696523428" y="-24133.183949044906"/>
   <node id="77" x="26063.242865199223" y="-24657.732822692953"/>
   <node id="78" x="26827.391826123" y="-24611.30999671761"/>
   <node id="79" x="27172.45298039913" y="-25362.88320514839"/>
   <node id="80" x="26398.93731621094" y="-25467.125480769202"/>
   <node id="81" x="26383.13360471651" y="-26358.136164617725"/>
   <node id="82" x="26543.288424620405" y="-27106.937053903006"/>
   <node id="83" x="27274.87825745158" y="-26594.655662192963"/>
   <node id="84" x="28264.237104861066" y="-27134.636080591008"/>
   <node id="85" x="27118.53785958886" y="-29127.39274657052"/>
   <node id="86" x="28942.018606530502" y="-29723.720222809352"/>
   <node id="87" x="30237.4903243687" y="-28628.03810657561"/>
   <node id="88" x="31967.306884491816" y="-29337.79924220871"/>
   <node id="89" x="27914.007506767288" y="-33343.54441568814"/>
   <node id="90" x="30098.033160855994" y="-31740.383911234327"/>
   <node id="91" x="34687.561268424615" y="-31353.513084035367"/>
   <node id="92" x="25687.788356021047" y="-23753.675525059924"/>
   <node id="93" x="25763.274438986555" y="-24161.705959401093"/>
   <node id="94" x="25420.467267308384" y="-24334.17999768071"/>
   <node id="95" x="24919.5904621128" y="-24909.600693096407"/>
   <node id="96" x="25516.065174870193" y="-24873.536352673545"/>
   <node id="97" x="25863.20306543447" y="-24687.130047232844"/>
   <node id="98" x="25704.23704220727" y="-25848.178856239654"/>
   <node id="99" x="25639.637467211112" y="-26273.19865201041"/>
   <node id="100" x="24572.85804110393" y="-26109.588421513326"/>
   <node id="101" x="22897.439013933763" y="-28049.182371369563"/>
   <node id="102" x="22415.04495175928" y="-29829.02236667741"/>
   <node id="103" x="24520.20649802871" y="-27966.536053877324"/>
   <node id="104" x="25179.313726872206" y="-28208.779995955527"/>
   <node id="105" x="21841.66671970859" y="-31306.83924203925"/>
   <node id="106" x="23740.19741843082" y="-30984.87013722118"/>
   <node id="107" x="25576.225684216246" y="-31958.77067453228"/>
   <node id="108" x="24807.644591659307" y="-23571.43607411068"/>
   <node id="109" x="25440.1486819759" y="-23478.657477623783"/>
   <node id="110" x="25277.700073894113" y="-23864.750851567835"/>
   <node id="111" x="24862.438017070293" y="-23982.99205290526"/>
   <node id="112" x="22720.073002709076" y="-23963.26885759551"/>
   <node id="113" x="23736.206378722563" y="-23847.44401420001"/>
   <node id="114" x="23992.734574152157" y="-24307.83466704469"/>
   <node id="115" x="23070.504716927186" y="-24450.04416736029"/>
   <node id="116" x="23172.066533323377" y="-25101.77533010766"/>
   <node id="117" x="21254.524457907304" y="-24525.47797014378"/>
   <node id="118" x="21639.30646756105" y="-24676.26039099414"/>
   <node id="119" x="22748.295343283564" y="-26376.94657239318"/>
   <node id="120" x="21745.993902334943" y="-26342.33421620913"/>
   <node id="121" x="21309.159838670865" y="-27609.92271755077"/>
   <node id="122" x="20007.422277010977" y="-27131.659416538663"/>
   <node id="123" x="21564.258141273633" y="-29477.265635018237"/>
   <node id="124" x="17346.036602713168" y="-28362.4428298017"/>
   <node id="125" x="18826.577347319573" y="-27675.352124658413"/>
   <node id="126" x="20105.1960173361" y="-28948.95201002527"/>
   <node id="127" x="17905.038801386952" y="-29967.117026207037"/>
   <node id="128" x="17910.845561897382" y="-31933.264617363922"/>
   <node id="129" x="19091.689331587404" y="-33116.81798957847"/>
   <node id="130" x="24612.525208091363" y="-22476.7732998617"/>
   <node id="131" x="25097.76379928924" y="-22538.200476901606"/>
   <node id="132" x="25256.304251339287" y="-23035.45020383969"/>
   <node id="133" x="24670.56504163891" y="-22925.46123086009"/>
   <node id="134" x="24419.04101892002" y="-23387.348301497288"/>
   <node id="135" x="25411.859418367967" y="-23329.571039610542"/>
   <node id="136" x="22271.320987269282" y="-21969.26312335115"/>
   <node id="137" x="23796.61740804091" y="-21937.4673693059"/>
   <node id="138" x="24433.85129931383" y="-21849.213314984925"/>
   <node id="139" x="23578.993706878275" y="-22813.219037652947"/>
   <node id="140" x="22818.608826914802" y="-22824.487885143608"/>
   <node id="141" x="21928.765612252057" y="-22728.754605039023"/>
   <node id="142" x="22015.38716557063" y="-24042.94696388766"/>
   <node id="143" x="22657.1379513219" y="-23456.98760212958"/>
   <node id="144" x="23650.023383112624" y="-23473.282258296385"/>
   <node id="145" x="20431.53679572791" y="-20467.644804015756"/>
   <node id="146" x="22514.409408271313" y="-19941.345143368468"/>
   <node id="147" x="22001.870923927054" y="-21057.241104411893"/>
   <node id="148" x="21492.56183294393" y="-22080.423829312436"/>
   <node id="149" x="19601.758559767157" y="-21317.474911843427"/>
   <node id="150" x="21112.252769442275" y="-23295.839793701656"/>
   <node id="151" x="19891.531590128317" y="-23364.00288785901"/>
   <node id="152" x="18558.77788262628" y="-25618.12859746162"/>
   <node id="153" x="15569.968324311078" y="-18171.73327484168"/>
   <node id="154" x="17911.572855571285" y="-18109.783736650832"/>
   <node id="155" x="20521.78194154799" y="-19123.675121363252"/>
   <node id="156" x="17904.710819553584" y="-19304.767254875973"/>
   <node id="157" x="16675.428697483614" y="-19069.476636421867"/>
   <node id="158" x="16787.408149406314" y="-19218.715035134926"/>
   <node id="159" x="16990.253283293918" y="-19296.63343887683"/>
   <node id="160" x="18138.768135258928" y="-21304.19353524968"/>
   <node id="161" x="16364.959324376658" y="-21287.769207778387"/>
   <node id="162" x="16560.80769294314" y="-24779.77855646331"/>
   <node id="163" x="24681.09139744565" y="-20257.335892302915"/>
   <node id="164" x="23818.748446250334" y="-21213.165685054846"/>
   <node id="165" x="23703.46417030506" y="-19715.158715288155"/>
   <node id="166" x="26897.636320449412" y="-20195.696733468212"/>
   <node id="167" x="26964.15985887125" y="-21145.46230501309"/>
   <node id="168" x="28014.187125544995" y="-20512.916700502858"/>
   <node id="169" x="27713.310397740453" y="-23573.86607996002"/>
   <node id="170" x="27571.451888326555" y="-24020.5199259175"/>
   <node id="171" x="27260.863190872595" y="-23835.378597456962"/>
   <node id="172" x="30137.06957080029" y="-23049.523970113136"/>
   <node id="173" x="28668.26677653566" y="-22868.62048869673"/>
   <node id="174" x="29597.973240979016" y="-23970.640996094793"/>
   <node id="175" x="24839.579521603882" y="-23713.304622995667"/>
   <node id="176" x="24390.294839665294" y="-23783.32635662798"/>
   <node id="177" x="24368.160756690428" y="-23632.87499402277"/>
   <node id="178" x="25158.47302130051" y="-23510.982889733277"/>
   <node id="179" x="25188.84730589576" y="-23661.599025350995"/>
   <node id="180" x="25458.223440056667" y="-23633.88324759435"/>
   <node id="181" x="25105.596070213243" y="-22913.15528676752"/>
   <node id="182" x="25377.293069629" y="-23019.478651162237"/>
   <node id="183" x="24229.382585631683" y="-22831.396942625754"/>
   <node id="184" x="24865.733309693635" y="-23292.972569829784"/>
   <node id="185" x="25151.24105850607" y="-23360.504658711143"/>
   <node id="186" x="25114.627610903233" y="-23219.748036879115"/>
   <node id="187" x="25390.393182097003" y="-23175.8666374553"/>
   <node id="188" x="23275.004374135286" y="-23888.409997574985"/>
   <node id="189" x="24012.59730296582" y="-23801.87780372519"/>
   <node id="190" x="23961.472997996956" y="-23411.999072203413"/>
   <node id="191" x="23231.828996932134" y="-23505.970019493252"/>
   <node id="192" x="20722.13561850041" y="-25036.89322304912"/>
   <node id="193" x="22255.49019920267" y="-25081.582019604743"/>
   <node id="194" x="22275.41402898915" y="-22650.78112677019"/>
   <node id="195" x="21969.103046365082" y="-23362.01194132492"/>
   <node id="196" x="19976.233981637284" y="-20399.72540335264"/>
   <node id="197" x="20364.55634443462" y="-19775.31976397615"/>
   <node id="198" x="22672.423452362418" y="-21002.23446774017"/>
   <node id="199" x="21581.77446663566" y="-21718.132748170756"/>
   <node id="200" x="21669.892241632566" y="-21401.736471300945"/>
   <node id="201" x="20564.82202117145" y="-21163.57506630197"/>
   <node id="202" x="20709.342336812988" y="-21017.649680653587"/>
   <node id="203" x="20453.394257603213" y="-23387.506113457493"/>
   <node id="204" x="26849.014220289886" y="-27713.60104574263"/>
   <node id="205" x="28555.593263622373" y="-17833.869772011414"/>
   <node id="206" x="21838.123879592866" y="-22428.86145307403"/>
   <node id="207" x="21527.215248772874" y="-22534.663117827848"/>
   <node id="208" x="22284.36285028793" y="-22287.506247773767"/>
   <node id="209" x="15862.149624269456" y="-29156.63860185258"/>
   <node id="210" x="13617.444146342576" y="-29870.24569844082"/>
   <node id="211" x="15682.461667219177" y="-27294.993097097613"/>
   <node id="212" x="13218.411287676543" y="-27515.382260916755"/>
   <node id="213" x="12875.458904124796" y="-25090.974521580152"/>
   <node id="214" x="11197.280407916754" y="-30463.7202128293"/>
   <node id="215" x="9380.106798605993" y="-28551.310947199352"/>
   <node id="216" x="10111.037352010608" y="-26113.675541912206"/>
   <node id="217" x="7842.613496454433" y="-29604.920901097357"/>
   <node id="218" x="6922.839022317901" y="-31614.39229026623"/>
   <node id="219" x="6255.665588911623" y="-30366.663318035193"/>
   <node id="220" x="6604.006289735436" y="-29275.84402791597"/>
   <node id="221" x="6218.883099727333" y="-29692.09819865413"/>
   <node id="222" x="5457.920619884506" y="-30284.33148786053"/>
   <node id="223" x="5797.835213083774" y="-29483.360607850365"/>
   <node id="224" x="4069.6998724211007" y="-32020.719008673914"/>
   <node id="225" x="3623.011838104576" y="-30423.74537258502"/>
   <node id="226" x="4504.126296326518" y="-28917.89663783554"/>
   <node id="227" x="14929.510410707444" y="-22859.790880143642"/>
   <node id="228" x="12849.702011233196" y="-23176.97873393353"/>
   <node id="229" x="14590.272252062336" y="-20684.42049888987"/>
   <node id="230" x="12546.58204606548" y="-21214.981469209306"/>
   <node id="231" x="9159.796615654603" y="-23933.382528966293"/>
   <node id="232" x="7586.4063978958875" y="-24696.614874495193"/>
   <node id="233" x="9495.351652145386" y="-21857.11878377851"/>
   <node id="234" x="7235.80845605582" y="-21849.38411650434"/>
   <node id="235" x="14477.456188831478" y="-19111.409140977077"/>
   <node id="236" x="13864.3732680697" y="-17265.52272114437"/>
   <node id="237" x="12599.300894549116" y="-18515.13330782391"/>
   <node id="238" x="10818.741510625929" y="-18198.44222669769"/>
   <node id="239" x="11597.961804376915" y="-19548.6801457135"/>
   <node id="240" x="7339.3799911458045" y="-18799.417722382583"/>
   <node id="241" x="5852.982315585017" y="-25463.512963129207"/>
   <node id="242" x="3574.799630653113" y="-26005.75210437458"/>
   <node id="243" x="5170.720299903303" y="-22868.52984481305"/>
   <node id="244" x="3052.4878685195" y="-23480.773791314103"/>
   <node id="245" x="4885.03676360473" y="-20706.466024195775"/>
   <node id="246" x="2068.167764076963" y="-20534.286477663554"/>
   <node id="247" x="4674.624293837696" y="-18670.65914328769"/>
   <node id="248" x="1934.3025453723967" y="-19347.474255558103"/>
   <node id="249" x="4352.307390144095" y="-16928.892535426654"/>
   <node id="250" x="4562.842653816566" y="-15926.858840100467"/>
   <node id="251" x="4375.971961095929" y="-15228.356145146303"/>
   <node id="252" x="3801.212801489979" y="-14804.043705720454"/>
   <node id="253" x="4051.3500277623534" y="-14832.587736062706"/>
   <node id="254" x="4019.1675077155232" y="-14599.859159236774"/>
   <node id="255" x="4336.363400131464" y="-14798.901018287987"/>
   <node id="256" x="4287.362190548331" y="-14563.417591994628"/>
   <node id="257" x="4610.427349805832" y="-14872.129947073758"/>
   <node id="258" x="4569.459875896573" y="-14759.078254813328"/>
   <node id="259" x="4546.990162994713" y="-14637.237279137596"/>
   <node id="260" x="4498.342517303303" y="-14446.714224743657"/>
   <node id="261" x="3532.447640426457" y="-14129.658488735557"/>
   <node id="262" x="4209.020592210814" y="-13992.298065164126"/>
   <node id="263" x="4763.509476277977" y="-13309.713051167317"/>
   <node id="264" x="5570.700406728312" y="-13419.42329916358"/>
   <node id="265" x="4946.26866440475" y="-13916.252541646361"/>
   <node id="266" x="4694.47452497296" y="-14411.297670007683"/>
   <node id="267" x="4901.322488958016" y="-14378.649940483272"/>
   <node id="268" x="4718.784385591745" y="-14600.837760679424"/>
   <node id="269" x="4937.187354188412" y="-14559.491804699413"/>
   <node id="270" x="4748.604372525588" y="-14738.323790768161"/>
   <node id="271" x="4963.6502148211" y="-14700.241608100943"/>
   <node id="272" x="4756.8652282152325" y="-14848.556069003418"/>
   <node id="273" x="4924.615694288164" y="-14815.862608804367"/>
   <node id="274" x="5417.870311072096" y="-14412.812172120437"/>
   <node id="275" x="6013.089319001883" y="-14265.404085522518"/>
   <node id="276" x="6007.001442573965" y="-14675.351560101844"/>
   <node id="277" x="5847.955511922017" y="-14767.084170279093"/>
   <node id="278" x="5255.843779888004" y="-14717.580405648798"/>
   <node id="279" x="5096.03476960212" y="-15035.422451645136"/>
   <node id="280" x="5534.288754656911" y="-15299.523550333455"/>
   <node id="281" x="5026.762794757262" y="-15687.530464651063"/>
   <node id="282" x="5505.919409899041" y="-15670.24098386988"/>
   <node id="283" x="5827.841983528808" y="-16609.854075029492"/>
   <node id="284" x="8312.72652777657" y="-16534.67343180254"/>
   <node id="285" x="8098.904175072908" y="-15496.013523253612"/>
   <node id="286" x="6702.941239595413" y="-14494.534943578765"/>
   <node id="287" x="6182.706121521071" y="-13555.938718188554"/>
   <node id="288" x="7822.982028190047" y="-13570.58100274019"/>
   <node id="289" x="9429.076775439084" y="-15663.372916859575"/>
   <node id="290" x="10559.386881724" y="-15444.356977436692"/>
   <node id="291" x="9705.918675187975" y="-13084.299806361087"/>
   <node id="292" x="12419.186601152644" y="-13037.248917953111"/>
   <node id="293" x="12613.077287584543" y="-15371.20134804491"/>
   <node id="294" x="15663.111760940403" y="-15677.36823881697"/>
   <node id="295" x="17094.404787160456" y="-12886.4686053982"/>
   <node id="296" x="17935.64031769894" y="-12528.071806939319"/>
   <node id="297" x="19706.342187820002" y="-14653.258560757153"/>
   <node id="298" x="19800.036155955866" y="-11565.421923466958"/>
   <node id="299" x="22654.952019132674" y="-11762.902709994465"/>
   <node id="300" x="24583.069630982354" y="-14335.67267203331"/>
   <node id="301" x="24639.205869745463" y="-12236.28277360741"/>
   <node id="302" x="25847.82982151024" y="-13041.30083656311"/>
   <node id="303" x="27187.569564549252" y="-13621.556821511127"/>
   <node id="304" x="26597.13214594312" y="-11234.030487054028"/>
   <node id="305" x="24282.26847227849" y="-7761.214482053183"/>
   <node id="306" x="26853.09870859608" y="-7100.169234383851"/>
   <node id="307" x="28739.860118746758" y="-4948.456546721049"/>
   <node id="308" x="29524.48484747298" y="-7488.3925805920735"/>
   <node id="309" x="31755.91141244024" y="-6917.223000558093"/>
   <node id="310" x="30053.488139923662" y="-10613.130004227161"/>
   <node id="311" x="30223.737083187327" y="-13258.004935635254"/>
   <node id="312" x="32083.643122179434" y="-10219.479124893434"/>
   <node id="313" x="33672.718621520326" y="-13201.384489167482"/>
   <node id="314" x="35978.30860486999" y="-12897.698820249178"/>
   <node id="315" x="34471.24735307507" y="-11654.777225072496"/>
   <node id="316" x="34934.645651960745" y="-11188.90829621721"/>
   <node id="317" x="35457.54464881867" y="-11445.540939388797"/>
   <node id="318" x="36296.10640207864" y="-11004.176742649637"/>
   <node id="319" x="36624.738376408815" y="-9573.328687929548"/>
   <node id="320" x="35757.406690238044" y="-8990.391668236814"/>
   <node id="321" x="33940.90374079719" y="-11028.19686274603"/>
   <node id="322" x="33152.93599460274" y="-6790.640384119935"/>
   <node id="323" x="35563.98821945861" y="-6273.680975932628"/>
   <node id="324" x="32256.326585624367" y="-3459.06273108162"/>
   <node id="325" x="34970.9464569632" y="-2949.565540060401"/>
   <node id="326" x="38071.89909519814" y="-1934.5156181296334"/>
   <node id="327" x="37672.271635234356" y="-3620.791636873968"/>
   <node id="328" x="39372.094197232276" y="-2781.5180712351575"/>
   <node id="329" x="39091.481424549595" y="-3552.0006201071665"/>
   <node id="330" x="40069.343605874106" y="-3362.509664438665"/>
   <node id="331" x="40352.40625048056" y="-2861.1022880245"/>
   <node id="332" x="40802.642359018326" y="-2190.3803434306756"/>
   <node id="333" x="41189.85563619807" y="-3251.411483855918"/>
   <node id="334" x="41216.70681785792" y="-4006.308750256896"/>
   <node id="335" x="40915.02981876396" y="-3696.2936024731025"/>
   <node id="336" x="40372.843196613714" y="-3402.720563273877"/>
   <node id="337" x="40189.39577706531" y="-3966.797838879749"/>
   <node id="338" x="40412.86010013893" y="-4334.610308111645"/>
   <node id="339" x="38706.963041152805" y="-5581.719301663339"/>
   <node id="340" x="41073.65734677762" y="-5273.2647910555825"/>
   <node id="341" x="39370.311573598534" y="-8720.994184662588"/>
   <node id="342" x="41578.11197413504" y="-8555.000056586228"/>
   <node id="343" x="40629.90030897781" y="-12133.524520879611"/>
   <node id="344" x="34939.24238947034" y="-16783.67391661834"/>
   <node id="345" x="35744.203294567764" y="-18098.54810109455"/>
   <node id="346" x="37340.05910736695" y="-17372.090434209444"/>
   <node id="347" x="36739.693784452975" y="-15083.735154218972"/>
   <node id="348" x="39672.5129221119" y="-14115.036968135275"/>
   <node id="349" x="41182.521049156785" y="-15735.213598055765"/>
   <node id="350" x="41455.350930513814" y="-17683.39350245893"/>
   <node id="351" x="41666.13750501722" y="-19348.857371669263"/>
   <node id="352" x="38236.8991684448" y="-18941.98668399919"/>
   <node id="353" x="38826.998595077544" y="-19594.250320951454"/>
   <node id="354" x="38040.77383740805" y="-19337.555617021397"/>
   <node id="355" x="35671.38144479133" y="-20089.06320046354"/>
   <node id="356" x="36412.223422106355" y="-22124.922883603722"/>
   <node id="357" x="37441.09327445552" y="-23352.694499761797"/>
   <node id="358" x="41977.89178349823" y="-21107.226494290866"/>
   <node id="359" x="42523.87700743787" y="-22501.463627116755"/>
   <node id="360" x="41716.502237051725" y="-24715.183258975856"/>
   <node id="361" x="43707.421296447515" y="-25073.29401389882"/>
   <node id="362" x="41303.44045550004" y="-26268.957873228937"/>
   <node id="363" x="40943.37139445171" y="-24585.021119666286"/>
   <node id="364" x="39111.30680527724" y="-26186.523567925207"/>
   <node id="365" x="36039.16645955667" y="-25342.644969580695"/>
   <node id="366" x="36840.0907694567" y="-26771.88401141204"/>
   <node id="367" x="36532.15709839761" y="-27152.099454129115"/>
   <node id="368" x="37041.62831646949" y="-31295.192420857027"/>
   <node id="369" x="39324.61955702305" y="-31105.292190204374"/>
   <node id="370" x="38471.530688678846" y="-29462.016572893597"/>
   <node id="371" x="38896.321504550055" y="-27806.157002560794"/>
   <node id="372" x="42326.465033810586" y="-29307.51045563165"/>
   <node id="373" x="44863.73161792755" y="-30063.24359762948"/>
   <node id="374" x="41665.56283993274" y="-2794.629680295475"/>
   <node id="375" x="41833.32029409893" y="-3933.9232832891867"/>
   <node id="376" x="42296.05827352032" y="-3306.7353138346225"/>
   <node id="377" x="42895.29759050906" y="-3708.0307726794854"/>
   <node id="378" x="33333.4595954977" y="-20936.230621819384"/>
   <node id="379" x="17752.755477489904" y="-20321.688811440952"/>
   <node id="380" x="19031.22235387005" y="-20482.92758482974"/>
   <node id="381" x="19324.008019825444" y="-20426.973072919063"/>
   <node id="382" x="22296.01946322061" y="-21710.99103268236"/>
   <node id="383" x="22787.956749645993" y="-22403.72748798132"/>
   <node id="384" x="23850.437245752662" y="-22588.27345952578"/>
   <node id="385" x="24415.84582992643" y="-20871.86826892104"/>
   <node id="386" x="24299.50357941352" y="-32772.89784831088"/>
   <node id="387" x="21526.51943160966" y="-28502.279729045928"/>
   <node id="388" x="20414.65794510953" y="-29858.745538949035"/>
   <node id="389" x="21905.568103067577" y="-20529.96735329833"/>
   <node id="390" x="28327.751224458218" y="-22361.234416301362"/>
   <node id="391" x="29497.659370515496" y="-21809.24077983573"/>
   <node id="392" x="31413.528450792655" y="-23192.728998404928"/>
   <node id="393" x="23554.499211056158" y="-29435.56460570637"/>
   <node id="394" x="21807.06732429564" y="-25792.92312975228"/>
   <node id="395" x="19686.55187115632" y="-25252.37644491531"/>
   <node id="440" x="33404.34912003949" y="-33332.36139310803"/>
   <node id="441" x="28692.281750278547" y="-34279.518165903166"/>
   <node id="442" x="26965.269110945985" y="-33113.25413156953"/>
   <node id="443" x="26646.384989062324" y="-32938.30197268259"/>
   <node id="444" x="24929.157708348706" y="-33315.63870493602"/>
   <node id="445" x="24754.267401931807" y="-33098.56509869732"/>
   <node id="446" x="23386.524538310245" y="-33357.61430313531"/>
   <node id="447" x="19046.2503907755" y="-34086.876544032246"/>
   <node id="448" x="12841.348612170666" y="-31950.292475516908"/>
   <node id="449" x="10747.754929434508" y="-32293.913602620363"/>
   <node id="450" x="9195.568685164675" y="-32608.038362302817"/>
   <node id="451" x="5224.025830265135" y="-33151.632071121596"/>
   <node id="452" x="1848.971857201308" y="-31584.585802874528"/>
   <node id="453" x="1525.6456883829087" y="-29917.782460790128"/>
   <node id="454" x="1049.3260484915227" y="-27591.016992374323"/>
   <node id="455" x="216.55741064809263" y="-20217.752713086084"/>
   <node id="456" x="0.0" y="-18565.08855865244"/>
   <node id="457" x="3472.1332960072905" y="-17539.912483586"/>
   <node id="458" x="3546.2014591302723" y="-15215.765214436688"/>
   <node id="459" x="3214.895481741056" y="-14421.031317296438"/>
   <node id="460" x="3531.9992829021066" y="-13687.845911389217"/>
   <node id="461" x="4337.941954171285" y="-12665.660149544477"/>
   <node id="462" x="5193.721506640315" y="-12456.772495527752"/>
   <node id="463" x="5641.577144082636" y="-12443.626813541166"/>
   <node id="464" x="10697.530889179558" y="-11550.961463592015"/>
   <node id="465" x="16788.04258450307" y="-10694.487430511974"/>
   <node id="466" x="20924.38062848337" y="-9916.23575864546"/>
   <node id="467" x="25802.800537638366" y="-4167.556828897446"/>
   <node id="468" x="27174.686323404312" y="-3925.729309774004"/>
   <node id="469" x="33255.28267042898" y="-1351.0583603819832"/>
   <node id="470" x="39467.13999403082" y="-329.05658607929945"/>
   <node id="471" x="41042.47730877064" y="-0.0"/>
   <node id="472" x="41725.9462526422" y="-2068.6742063183337"/>
   <node id="473" x="43244.320064494386" y="-2610.7932815141976"/>
   <node id="474" x="43511.519846377894" y="-3141.0752849373966"/>
   <node id="475" x="43226.42525688" y="-9895.608355082572"/>
   <node id="476" x="43345.12630312517" y="-10549.90865414124"/>
   <node id="477" x="44474.405786840245" y="-16325.584342197515"/>
   <node id="478" x="44842.961339911446" y="-19623.23315982893"/>
   <node id="479" x="45247.37823217921" y="-21223.84634967521"/>
   <node id="480" x="42432.596525616944" y="-32275.997150850482"/>
   <node id="481" x="38313.48584362678" y="-32951.27723622508"/>
   <node id="482" x="32187.914951186627" y="-32893.64019218553"/>
   <node id="483" x="30120.882540911436" y="-33121.261870059185"/>
   <node id="484" x="15470.080240199342" y="-31552.923275802284"/>
   <node id="485" x="7913.588057210669" y="-11998.736778265797"/>
   <node id="486" x="16430.093207022175" y="-10917.421254247427"/>
   <node id="487" x="30364.97187779285" y="-3479.106721800752"/>
   <node id="488" x="36347.9876984451" y="-929.0417475458235"/>
   <node id="489" x="42555.93058157712" y="-6784.466494292952"/>
   <node id="490" x="44618.113575682044" y="-17978.315112333745"/>
   <node id="491" x="45289.97176695801" y="-24555.582769163884"/>
   <node id="492" x="45765.606815520674" y="-30831.9224105319"/>
   <node id="493" x="36138.08530720696" y="-11016.105232832953"/>
   <node id="100000" x="25448.059679204598" y="-23098.265420187265"/>
   <node id="100001" x="25526.297403156757" y="-23085.829452359118"/>
   <node id="100002" x="25622.246486302465" y="-23072.645364198834"/>
   <node id="100003" x="25686.321778271347" y="-23063.840666381642"/>
   <node id="100004" x="25742.508213588968" y="-23054.132204369642"/>
   <node id="100005" x="25828.041636666283" y="-23038.68981784396"/>
   <node id="100006" x="25914.950106844306" y="-23026.874813522212"/>