<additional>
    <taz id="1" edges="101997to1 101997to2 101997to100003 101997to101991"/>
    <taz id="2" edges="101996to2 101996to3 101996to100005"/>
    <taz id="3" edges="101995to3 101995to101994"/>
    <taz id="4" edges="100020to4 100020to100019"/>
    <taz id="5" edges="100007to5 100007to100018"/>
    <taz id="6" edges="100008to5 100008to6 100008to100003 100008to100016"/>
    <taz id="7" edges="102022to102019 102022to102023"/>
    <taz id="8" edges="102017to100032 102017to102021"/>
    <taz id="9" edges="104440to100100"/>
    <taz id="10" edges="102020to102017 102020to102021"/>
    <taz id="11" edges="102023to102018 102023to102020"/>
    <taz id="12" edges="100050to12 100050to13 100050to100045 100050to100056"/>
    <taz id="13" edges="100049to13 100049to100058"/>
    <taz id="14" edges="102011to101982 102011to101984 102011to102008 102011to102012"/>
    <taz id="15" edges="101981to100143 101981to101977 101981to101980 101981to101993"/>
    <taz id="16" edges="101961to16 101961to101938"/>
    <taz id="17" edges="101937to101936 101937to101938"/>
    <taz id="18" edges="101788to100177 101788to101761"/>
    <taz id="19" edges="101940to19 101940to20 101940to101939 101940to101945"/>
    <taz id="20" edges="101939to17 101939to101938 101939to101940"/>
    <taz id="21" edges="101968to101967 101968to101977"/>
    <taz id="22" edges="101971to101972 101971to101973"/>
    <taz id="23" edges="101972to100207 101972to100208 101972to101942 101972to101971"/>
    <taz id="24" edges="101909to24 101909to101905 101909to101907"/>
    <taz id="25" edges="101921to101912 101921to101920 101921to101922"/>
    <taz id="26" edges="101924to28 101924to101923 101924to101925"/>
    <taz id="27" edges="101918to33 101918to101917 101918to101919"/>
    <taz id="28" edges="101928to29 101928to101923 101928to101929"/>
    <taz id="29" edges="101929to28 101929to101928 101929to101930"/>
    <taz id="30" edges="101782to101774 101782to101781 101782to101783"/>
    <taz id="31" edges="103400to101780 103400to101910"/>
    <taz id="32" edges="101912to32 101912to101921 101912to102553"/>
    <taz id="33" edges="101920to101916 101920to101919 101920to101921"/>
    <taz id="34" edges="101980to100098 101980to100144 101980to101979 101980to101981"/>
    <taz id="35" edges="101952to35 101952to100098"/>
    <taz id="36" edges="101950to101935 101950to101949 101950to101951"/>
    <taz id="37" edges="101978to100211 101978to101979"/>
    <taz id="38" edges="101951to38 101951to101950 101951to101963"/>
    <taz id="39" edges="101959to101953 101959to101954"/>
    <taz id="40" edges="102003to102518"/>
    <taz id="41" edges="100744to41 100744to150 100744to100743 100744to100745"/>
    <taz id="42" edges="100103to57 100103to100102 100103to100104"/>
    <taz id="43" edges="101927to43 101927to101925 101927to101933"/>
    <taz id="44" edges="102509to100139 102509to102507"/>
    <taz id="45" edges="102545to100123 102545to100181"/>
    <taz id="46" edges="102519to101955 102519to102517"/>
    <taz id="47" edges="100568to47 100568to100136 100568to100137"/>
    <taz id="48" edges="103413to100136 103413to100141 103413to104073"/>
    <taz id="49" edges="104241to100145 104241to104221 104241to104242"/>
    <taz id="50" edges="100194to50 100194to100146 100194to100149"/>
    <taz id="51" edges="100155to51 100155to100149 100155to100151"/>
    <taz id="52" edges="100190to378 100190to100151 100190to100156"/>
    <taz id="53" edges="100097to100006 100097to100093 100097to100096 100097to100098"/>
    <taz id="54" edges="101957to54 101957to100092"/>
    <taz id="55" edges="100258to55 100258to100083"/>
    <taz id="56" edges="56to100084"/>
    <taz id="57" edges="100102to42 100102to100101 100102to100103"/>
    <taz id="58" edges="102520to100111 102520to102510"/>
    <taz id="59" edges="100218to59 100218to100108"/>
    <taz id="60" edges="100085to60 100085to170 100085to100084 100085to100109"/>
    <taz id="61" edges="102542to100111 102542to102522"/>
    <taz id="62" edges="104443to100601 104443to102526"/>
    <taz id="63" edges="104438to100111 104438to100112 104438to102511"/>
    <taz id="64" edges="100162to100117 100162to100160 100162to100164 100162to100657"/>
    <taz id="65" edges="100159to100118"/>
    <taz id="66" edges="102554to66 102554to100650"/>
    <taz id="67" edges="102523to100307 102523to102511"/>
    <taz id="68" edges="100654to68 100654to100116 100654to100653"/>
    <taz id="69" edges="104444to100602 104444to102525"/>
    <taz id="70" edges="100664to100643 100664to100663 100664to100665"/>
    <taz id="71" edges="100160to71 100160to100156 100160to100162"/>
    <taz id="72" edges="100699to72 100699to100658"/>
    <taz id="73" edges="104114to103978 104114to104115"/>
    <taz id="74" edges="100058to100059"/>
    <taz id="75" edges="104439to100060 104439to104440"/>
    <taz id="76" edges="100072to76 100072to100071 100072to100081"/>
    <taz id="77" edges="100583to100581 100583to100582 100583to100584"/>
    <taz id="78" edges="100582to100204 100582to100571 100582to100581 100582to100583"/>
    <taz id="79" edges="100598to100597 100598to100599"/>
    <taz id="80" edges="100596to100584 100596to100595 100596to100597 100596to100603"/>
    <taz id="81" edges="100604to81 100604to100592 100604to100609"/>
    <taz id="82" edges="100675to81 100675to82 100675to100609"/>
    <taz id="83" edges="100603to83 100603to100596 100603to100614"/>
    <taz id="84" edges="102528to102530"/>
    <taz id="85" edges="102533to100617 102533to102531"/>
    <taz id="86" edges="102531to102529"/>
    <taz id="87" edges="100672to87 100672to100641"/>
    <taz id="88" edges="100643to100639 100643to100642 100643to100649 100643to100664"/>
    <taz id="89" edges="100630to89 100630to100626 100630to100631"/>
    <taz id="90" edges="102546to483 102546to100632"/>
    <taz id="91" edges="104124to103983 104124to104116 104124to104122"/>
    <taz id="92" edges="100062to74 100062to92 100062to100056 100062to100069"/>
    <taz id="93" edges="100074to93 100074to94 100074to100067"/>
    <taz id="94" edges="100075to94 100075to100076"/>
    <taz id="95" edges="101840to94 101840to101838 101840to101841"/>
    <taz id="96" edges="101839to94 101839to96 101839to100076 101839to101838"/>
    <taz id="97" edges="100579to100575 100579to100578 100579to100580 100579to100585"/>
    <taz id="98" edges="100590to98 100590to100591 100590to100607"/>
    <taz id="99" edges="100608to100605 100608to100606 100608to100609 100608to100611"/>
    <taz id="100" edges="102544to100562 102544to100606"/>
    <taz id="101" edges="100559to100558 100559to100560 100559to100561"/>
    <taz id="102" edges="100545to102 100545to393 100545to100544 100545to100554"/>
    <taz id="103" edges="100560to103 100560to100559 100560to100606"/>
    <taz id="104" edges="102536to100548 102536to102538"/>
    <taz id="105" edges="100541to105 100541to106 100541to100536 100541to100544"/>
    <taz id="106" edges="102538to102540"/>
    <taz id="107" edges="102540to444"/>
    <taz id="108" edges="101858to108 101858to184 101858to101857 101858to101860"/>
    <taz id="109" edges="100038to109 100038to100042"/>
    <taz id="110" edges="101844to100052 101844to100255 101844to100274 101844to100279"/>
    <taz id="111" edges="101847to100272 101847to101843 101847to101846 101847to101853"/>
    <taz id="112" edges="101820to112 101820to142 101820to101811 101820to101821"/>
    <taz id="113" edges="101825to101818 101825to101826"/>
    <taz id="114" edges="101849to100188 101849to100298 101849to101827 101849to101850"/>
    <taz id="115" edges="101829to115 101829to118 101829to101821 101829to101830"/>
    <taz id="116" edges="101837to116 101837to193 101837to394 101837to100566 101837to100567"/>
    <taz id="117" edges="100175to41 100175to100740 100175to100741"/>
    <taz id="118" edges="100741to118 100741to100175 100741to100742"/>
    <taz id="119" edges="100498to119 100498to100500 100498to100561"/>
    <taz id="120" edges="104447to120 104447to104445"/>
    <taz id="121" edges="121to100499 121to100671"/>
    <taz id="122" edges="100507to122 100507to100506 100507to100508"/>
    <taz id="123" edges="100555to100266 100555to100267 100555to100554 100555to100556"/>
    <taz id="124" edges="100511to124 100511to209 100511to100501 100511to100513"/>
    <taz id="125" edges="100509to125 100509to100503 100509to100510"/>
    <taz id="126" edges="100519to100495 100519to100496 100519to100499 100519to100671"/>
    <taz id="127" edges="100521to100309 100521to100516 100521to100523"/>
    <taz id="128" edges="100531to128 100531to100530 100531to100532"/>
    <taz id="129" edges="100534to129 100534to100532 100534to100535"/>
    <taz id="130" edges="101894to130 101894to138 101894to100169 101894to101893"/>
    <taz id="131" edges="102015to131 102015to102014"/>
    <taz id="132" edges="101986to100282 101986to101960 101986to102006"/>
    <taz id="133" edges="101913to133"/>
    <taz id="134" edges="101911to134 101911to177 101911to101860 101911to101861"/>
    <taz id="135" edges="100024to135 100024to100028"/>
    <taz id="136" edges="101885to100171 101885to101884 101885to101886"/>
    <taz id="137" edges="101897to100195 101897to101793 101897to101896 101897to101898"/>
    <taz id="138" edges="101899to101895 101899to101898 101899to101900 101899to101942"/>
    <taz id="139" edges="101884to101745 101884to101799 101884to101883 101884to101885"/>
    <taz id="140" edges="104441to208 104441to101796 104441to101798"/>
    <taz id="141" edges="141to100748 141to101797"/>
    <taz id="142" edges="100743to142 100743to100744 100743to101811"/>
    <taz id="143" edges="101813to112 101813to101812 101813to101814"/>
    <taz id="144" edges="101875to101806 101875to101873 101875to101874 101875to101876"/>
    <taz id="145" edges="101757to100176 101757to100230 101757to100231 101757to101758"/>
    <taz id="146" edges="101787to146 101787to101786 101787to101904"/>
    <taz id="147" edges="101789to147 101789to100177 101789to101790"/>
    <taz id="148" edges="100246to148 100246to101795"/>
    <taz id="380" edges="101756to149 101756to199 101756to201 101756to100750 101756to101758"/>
    <taz id="150" edges="100749to150 100749to207 100749to100748 100749to100750"/>
    <taz id="151" edges="101753to100726 101753to101752 101753to101754"/>
    <taz id="152" edges="100733to100313 100733to100732 100733to100735 100733to100770"/>
    <taz id="153" edges="100707to153 100707to100706 100707to100708"/>
    <taz id="154" edges="101773to101772 101773to101774 101773to102555"/>
    <taz id="155" edges="102555to155 102555to101763 102555to101773"/>
    <taz id="156" edges="101770to100727 101770to101768 101770to101771"/>
    <taz id="157" edges="100712to100710 100712to100711 100712to100713 100712to100727"/>
    <taz id="158" edges="100715to158 100715to100708 100715to100714"/>
    <taz id="159" edges="101769to159 101769to100714 101769to101767"/>
    <taz id="160" edges="102556to160 102556to100725 102556to100726"/>
    <taz id="161" edges="103651to235 103651to100706 103651to100716"/>
    <taz id="162" edges="100770to100733 100770to100766"/>
    <taz id="163" edges="101931to101930 101931to101932 101931to101936"/>
    <taz id="164" edges="164to100195 164to101898"/>
    <taz id="165" edges="101904to100269 101904to101787 101904to101905"/>
    <taz id="166" edges="101934to43 101934to100220 101934to101933"/>
    <taz id="167" edges="100219to100214 100219to100215 100219to101953 100219to101962"/>
    <taz id="168" edges="102517to101958 102517to102515"/>
    <taz id="169" edges="100223to59 100223to169 100223to100222"/>
    <taz id="170" edges="100224to170 100224to100222"/>
    <taz id="171" edges="100221to171 100221to100108"/>
    <taz id="172" edges="100142to172 100142to100115"/>
    <taz id="173" edges="102521to102519"/>
    <taz id="174" edges="100241to174 100241to100240 100241to100651"/>
    <taz id="175" edges="101855to100278 101855to101854 101855to101856"/>
    <taz id="176" edges="101853to100271 101853to101847 101853to101859"/>
    <taz id="177" edges="101859to101853 101859to101860"/>
    <taz id="178" edges="100277to178 100277to100248 100277to100249"/>
    <taz id="179" edges="100280to180 100280to100040 100280to100052"/>
    <taz id="180" edges="100281to180 100281to100053"/>
    <taz id="181" edges="102013to181 102013to100282 102013to102014"/>
    <taz id="182" edges="101998to1 101998to101989"/>
    <taz id="183" edges="102001to183 102001to100285"/>
    <taz id="184" edges="102000to134 102000to184 102000to100287"/>
    <taz id="185" edges="100295to185 100295to186 100295to100252"/>
    <taz id="186" edges="101999to100253 101999to100283 101999to100290 101999to101960"/>
    <taz id="187" edges="100289to187 100289to100012"/>
    <taz id="188" edges="101943to188 101943to101818"/>
    <taz id="189" edges="101862to100299 101862to101778 101862to101852 101862to101864"/>
    <taz id="190" edges="101873to101764 101873to101867 101873to101875 101873to101877"/>
    <taz id="191" edges="101814to100260 101814to101808 101814to101813 101814to101819"/>
    <taz id="192" edges="104446to118 104446to192 104446to100739 104446to104445"/>
    <taz id="193" edges="102010to193 102010to101830"/>
    <taz id="196" edges="101760to101747 101760to101748 101760to101749 101760to101758"/>
    <taz id="197" edges="101785to101761 101785to101762 101785to101784 101785to101786"/>
    <taz id="198" edges="101903to100195 101903to100203 101903to100269 101903to101902"/>
    <taz id="199" edges="100303to199 100303to101794"/>
    <taz id="200" edges="100234to200 100234to100176 100234to100235 100234to101790"/>
    <taz id="201" edges="201to101756"/>
    <taz id="202" edges="100230to202 100230to101757"/>
    <taz id="203" edges="100750to100747 100750to100749 100750to101751 100750to101756"/>
    <taz id="204" edges="100613to82 100613to204 100613to100612 100613to100614"/>
    <taz id="205" edges="100306to205 100306to100130 100306to100137"/>
    <taz id="206" edges="101797to141 101797to194 101797to101796 101797to101800"/>
    <taz id="207" edges="207to100749"/>
    <taz id="208" edges="104442to208 104442to100311"/>
    <taz id="209" edges="103863to103606 103863to103859 103863to103861 103863to103865"/>
    <taz id="210" edges="103860to103635 103860to103864"/>
    <taz id="211" edges="103870to100735 103870to103864 103870to103871 103870to103872"/>
    <taz id="212" edges="103872to103626 103872to103870"/>
    <taz id="213" edges="103873to228 103873to103634 103873to103871"/>
    <taz id="214" edges="103719to103641 103719to103657"/>
    <taz id="215" edges="103717to215 103717to103657 103717to103708"/>
    <taz id="216" edges="103721to216 103721to103603 103721to103625"/>
    <taz id="217" edges="103714to217 103714to103668 103714to103711"/>
    <taz id="218" edges="103663to103654 103663to103655 103663to103662 103663to103702"/>
    <taz id="219" edges="103701to103695 103701to103702"/>
    <taz id="220" edges="220to103691"/>
    <taz id="221" edges="103699to221 103699to103667 103699to103697"/>
    <taz id="222" edges="103702to103663 103702to103701"/>
    <taz id="223" edges="103698to221 103698to223 103698to103691 103698to103697"/>
    <taz id="224" edges="103652to224 103652to225 103652to103572 103652to103654"/>
    <taz id="225" edges="103688to225 103688to103577 103688to103683"/>
    <taz id="226" edges="103690to103649 103690to103676 103690to103684"/>
    <taz id="227" edges="103917to103602 103917to103620 103917to103899"/>
    <taz id="228" edges="103871to103601 103871to103619 103871to103870 103871to103873"/>
    <taz id="229" edges="103918to103903 103918to103907 103918to103916"/>
    <taz id="230" edges="103902to230 103902to239 103902to103617 103902to103903"/>
    <taz id="231" edges="103777to103598 103777to103608"/>
    <taz id="232" edges="103774to103615 103774to103632 103774to103760"/>
    <taz id="233" edges="103781to103608 103781to103780"/>
    <taz id="234" edges="103772to103765 103772to103773 103772to103775"/>
    <taz id="235" edges="103901to103900 103901to103904 103901to103907"/>
    <taz id="236" edges="103920to100701 103920to103877 103920to103921"/>
    <taz id="237" edges="103914to103622 103914to103637 103914to103908 103914to103915"/>
    <taz id="238" edges="103913to238 103913to103622 103913to103905"/>
    <taz id="239" edges="103912to103653 103912to103897 103912to103906"/>
    <taz id="240" edges="103786to103621 103786to103787"/>
    <taz id="241" edges="103722to103592 103722to103632"/>
    <taz id="242" edges="103674to241 103674to242 103674to103647 103674to103666"/>
    <taz id="243" edges="103775to103730 103775to103760 103775to103772"/>
    <taz id="244" edges="103754to103574 103754to103613 103754to103729 103754to103751"/>
    <taz id="245" edges="103773to245 103773to103728 103773to103772"/>
    <taz id="246" edges="103750to103574 103750to103727 103750to103747 103750to103749"/>
    <taz id="247" edges="103759to247 103759to249 103759to250 103759to103725 103759to103747"/>
    <taz id="248" edges="103758to246 103758to248 103758to103749 103758to103753"/>
    <taz id="249" edges="249to103759 249to104426"/>
    <taz id="250" edges="250to100685 250to103759 250to104426"/>
    <taz id="251" edges="104426to249 104426to250 104426to103648"/>
    <taz id="252" edges="103716to458 103716to103715"/>
    <taz id="253" edges="103689to253 103689to103648 103689to103703"/>
    <taz id="254" edges="103693to254 103693to256 103693to100705 103693to103640"/>
    <taz id="255" edges="103692to255 103692to256 103692to103580 103692to103640"/>
    <taz id="256" edges="103744to260 103744to100694 103744to100696"/>
    <taz id="257" edges="103867to257 103867to258 103867to100678 103867to100681"/>
    <taz id="258" edges="103898to258 103898to100680 103898to100681"/>
    <taz id="259" edges="103869to259 103869to100680 103869to100691"/>
    <taz id="260" edges="103868to260 103868to100679 103868to100691"/>
    <taz id="261" edges="103910to261 103910to262 103910to103569 103910to103630"/>
    <taz id="262" edges="103822to260 103822to100679 103822to100696"/>
    <taz id="263" edges="103813to263 103813to103830 103813to103911"/>
    <taz id="264" edges="264to103829"/>
    <taz id="265" edges="103911to262 103911to265 103911to103811 103911to103813"/>
    <taz id="266" edges="103919to266 103919to100690 103919to103811"/>
    <taz id="267" edges="103967to267 103967to100682 103967to100693"/>
    <taz id="268" edges="103945to268 103945to100690 103945to103810"/>
    <taz id="269" edges="103965to269 103965to100688 103965to103815"/>
    <taz id="270" edges="103946to270 103946to103810 103946to103825"/>
    <taz id="271" edges="103966to271 103966to103815 103966to103817"/>
    <taz id="272" edges="103823to272 103823to103821 103823to103825"/>
    <taz id="273" edges="103974to273 103974to103817 103974to103825"/>
    <taz id="274" edges="103977to274 103977to100682"/>
    <taz id="275" edges="103999to275 103999to103804 103999to104003"/>
    <taz id="276" edges="276to103808 276to104003"/>
    <taz id="277" edges="277to103808"/>
    <taz id="278" edges="103969to271 103969to103812 103969to103816"/>
    <taz id="279" edges="103821to100686 103821to100687 103821to103820 103821to103823"/>
    <taz id="280" edges="103819to100684 103819to103818 103819to104074"/>
    <taz id="281" edges="104074to279 104074to103819 104074to103820"/>
    <taz id="282" edges="103827to281 103827to282 103827to103741 103827to103818"/>
    <taz id="283" edges="103740to283 103740to103741 103740to103776"/>
    <taz id="284" edges="103793to103732 103793to103734 103793to103806"/>
    <taz id="285" edges="103849to103724 103849to103795 103849to103838"/>
    <taz id="286" edges="104003to276 104003to103809 104003to103999"/>
    <taz id="287" edges="103853to103848 103853to103854"/>
    <taz id="288" edges="103856to103842 103856to103855"/>
    <taz id="289" edges="104405to103737 104405to103841"/>
    <taz id="290" edges="103790to290 103790to103593 103790to103874"/>
    <taz id="291" edges="103857to103623 103857to103644"/>
    <taz id="292" edges="103939to103887 103939to103937"/>
    <taz id="293" edges="103935to103878 103935to103933"/>
    <taz id="294" edges="103961to103953 103961to103962"/>
    <taz id="295" edges="103970to465 103970to103942"/>
    <taz id="296" edges="103973to296 103973to103581 103973to103960"/>
    <taz id="297" edges="104045to104026 104045to104044"/>
    <taz id="298" edges="104056to103582 104056to104054"/>
    <taz id="299" edges="104055to299 104055to305 104055to104054 104055to104058"/>
    <taz id="300" edges="104048to104038"/>
    <taz id="301" edges="104059to301 104059to104010 104059to104030"/>
    <taz id="302" edges="104060to104020 104060to104058"/>
    <taz id="303" edges="104071to100134 104071to104012"/>
    <taz id="304" edges="104075to304 104075to310 104075to104023 104075to104080"/>
    <taz id="305" edges="104083to306 104083to104015 104083to104017"/>
    <taz id="306" edges="104382to103565 104382to104381"/>
    <taz id="307" edges="103560to487 103560to103559"/>
    <taz id="308" edges="104284to103980 104284to103997"/>
    <taz id="309" edges="103551to309 103551to103545 103551to103559"/>
    <taz id="310" edges="103997to103976 103997to103996 103997to104284 103997to104285"/>
    <taz id="311" edges="104259to104248 104259to104252"/>
    <taz id="312" edges="104280to104279 104280to104285 104280to104286"/>
    <taz id="313" edges="104266to314 104266to104222 104266to104268"/>
    <taz id="314" edges="104332to104210 104332to104217"/>
    <taz id="315" edges="104283to104202 104283to104282"/>
    <taz id="316" edges="104306to316 104306to104202 104306to104305"/>
    <taz id="317" edges="104314to104205"/>
    <taz id="318" edges="104317to104184 104317to104310 104317to104316"/>
    <taz id="319" edges="104340to341 104340to104196 104340to104357"/>
    <taz id="320" edges="104357to104340 104357to104344"/>
    <taz id="321" edges="104287to103852 104287to104202"/>
    <taz id="322" edges="104286to103852 104286to104173 104286to104192 104286to104280"/>
    <taz id="323" edges="104362to104345 104362to104360"/>
    <taz id="324" edges="104387to469 104387to103568"/>
    <taz id="325" edges="104385to325 104385to326 104385to103562 104385to104389"/>
    <taz id="326" edges="104393to326 104393to103512 104393to103926"/>
    <taz id="327" edges="103556to326 103556to327 103556to103562 103556to103925"/>
    <taz id="328" edges="103926to328 103926to331 103926to103571 103926to104393"/>
    <taz id="329" edges="103925to328 103925to329 103925to103556 103925to103571"/>
    <taz id="330" edges="103938to330 103938to103570 103938to103571"/>
    <taz id="331" edges="100755to331 100755to103528"/>
    <taz id="332" edges="103513to471 103513to104402"/>
    <taz id="333" edges="104404to104394 104404to104402"/>
    <taz id="334" edges="103534to103533 103534to104394 103534to104400 103534to104411"/>
    <taz id="335" edges="104409to335 104409to104408"/>
    <taz id="336" edges="104410to336 104410to104408"/>
    <taz id="337" edges="104376to103947 104376to104016 104376to104369"/>
    <taz id="338" edges="104373to104011 104373to104353 104373to104374"/>
    <taz id="339" edges="104368to104337 104368to104369"/>
    <taz id="340" edges="104401to340 104401to104398 104401to104400"/>
    <taz id="341" edges="104355to104356"/>
    <taz id="342" edges="104335to103506 104335to104187"/>
    <taz id="343" edges="104329to343 104329to104176 104329to104331"/>
    <taz id="344" edges="104228to347 104228to104222 104228to104227"/>
    <taz id="345" edges="104261to104051 104261to104194 104261to104226 104261to104227"/>
    <taz id="346" edges="104326to346 104326to104181 104326to104198"/>
    <taz id="347" edges="104275to104175 104275to104264"/>
    <taz id="348" edges="104395to103501 104395to103521"/>
    <taz id="349" edges="104322to104176 104322to104181 104322to104319 104322to104327"/>
    <taz id="350" edges="104328to103991 104328to104327"/>
    <taz id="351" edges="104169to103990 104169to104001"/>
    <taz id="352" edges="104198to104000 104198to104197 104198to104326 104198to104327"/>
    <taz id="353" edges="104053to353 104053to104001 104053to104166"/>
    <taz id="354" edges="104170to104005 104170to104052 104170to104168"/>
    <taz id="355" edges="104262to103989 104262to104197"/>
    <taz id="356" edges="104146to104098 104146to104109"/>
    <taz id="357" edges="104160to104004 104160to104110 104160to104158 104160to104167"/>
    <taz id="358" edges="104167to104099 104167to104160 104167to104166"/>
    <taz id="359" edges="103536to103535 103536to104423"/>
    <taz id="360" edges="104165to360 104165to363 104165to104163 104165to104424"/>
    <taz id="361" edges="104106to361 104106to362 104106to104062 104106to104096"/>
    <taz id="362" edges="104425to104096"/>
    <taz id="363" edges="104424to104111 104424to104164 104424to104165"/>
    <taz id="364" edges="104101to104092 104101to104100 104101to104110 104101to104158"/>
    <taz id="365" edges="104143to357 104143to104100 104143to104138"/>
    <taz id="366" edges="104131to104128 104131to104130"/>
    <taz id="367" edges="104133to366 104133to367 104133to104119 104133to104130"/>
    <taz id="368" edges="104125to368 104125to104121 104125to104123"/>
    <taz id="369" edges="104148to104103 104148to104105 104148to104149"/>
    <taz id="370" edges="104108to370 104108to371 104108to104103 104108to104127"/>
    <taz id="371" edges="104103to104102 104103to104108 104103to104148"/>
    <taz id="372" edges="104155to103524 104155to104152"/>
    <taz id="373" edges="103530to492 103530to103524"/>
    <taz id="374" edges="374to104394"/>
    <taz id="375" edges="104400to375 104400to100757 104400to103534 104400to104401"/>
    <taz id="376" edges="104427to104411 104427to104428 104427to104432"/>
    <taz id="377" edges="104432to103544"/>
    <taz id="378" edges="104057to355 104057to378 104057to100153 104057to100158"/>
    <taz id="379" edges="100774to379 100774to100714 100774to100773"/>
    <taz id="381" edges="101765to100225 101765to100778 101765to101750 101765to101763"/>
    <taz id="382" edges="101793to100173 101793to101792 101793to101897"/>
    <taz id="383" edges="383to101798"/>
    <taz id="384" edges="101887to100286 101887to101745 101887to101886"/>
    <taz id="385" edges="101900to16 101900to385 101900to101899 101900to101901"/>
    <taz id="386" edges="100537to446 100537to100536"/>
    <taz id="387" edges="100671to121 100671to387 100671to100519 100671to100557"/>
    <taz id="388" edges="100309to126 100309to100520 100309to100521"/>
    <taz id="389" edges="389to100203"/>
    <taz id="390" edges="390to100104"/>
    <taz id="391" edges="391to100105"/>
    <taz id="392" edges="100161to64 100161to392 100161to100118 100161to100119"/>
    <taz id="393" edges="100554to100545 100554to100553 100554to100555"/>
    <taz id="394" edges="394to100565 394to101837"/>
    <taz id="395" edges="100729to100505 100729to100728 100729to100730 100729to100737"/>
    <taz id="440" edges="440to100186"/>
    <taz id="441" edges="441to100631"/>
    <taz id="442" edges="442to100674"/>
    <taz id="443" edges="443to100629"/>
    <taz id="444" edges="444to102540 444to102541"/>
    <taz id="445" edges="445to100538"/>
    <taz id="446" edges="446to100537"/>
    <taz id="447" edges="447to100533"/>
    <taz id="448" edges="448to100760"/>
    <taz id="449" edges="449to100763"/>
    <taz id="450" edges="450to100764"/>
    <taz id="451" edges="451to103672"/>
    <taz id="452" edges="452to103572"/>
    <taz id="453" edges="453to103577"/>
    <taz id="454" edges="454to103681"/>
    <taz id="455" edges="455to103576"/>
    <taz id="456" edges="456to103575"/>
    <taz id="457" edges="457to100765"/>
    <taz id="458" edges="458to103716"/>
    <taz id="459" edges="459to103638"/>
    <taz id="460" edges="460to103630"/>
    <taz id="461" edges="461to103830"/>
    <taz id="462" edges="462to103796"/>
    <taz id="463" edges="463to103800"/>
    <taz id="464" edges="464to103929"/>
    <taz id="465" edges="465to103970"/>
    <taz id="466" edges="466to103586"/>
    <taz id="467" edges="467to104381"/>
    <taz id="468" edges="468to104380"/>
    <taz id="469" edges="469to104387"/>
    <taz id="470" edges="470to103512"/>
    <taz id="471" edges="471to103513"/>
    <taz id="472" edges="472to104412"/>
    <taz id="473" edges="473to104436"/>
    <taz id="474" edges="474to104430"/>
    <taz id="475" edges="475to104415"/>
    <taz id="476" edges="476to104417"/>
    <taz id="477" edges="477to104420"/>
    <taz id="478" edges="478to104422"/>
    <taz id="479" edges="479to104423"/>
    <taz id="480" edges="480to103584"/>
    <taz id="481" edges="481to103585"/>
    <taz id="482" edges="482to100512"/>
    <taz id="483" edges="483to102546"/>
    <taz id="484" edges="484to103865"/>
    <taz id="485" edges="485to103835"/>
    <taz id="486" edges="486to103948"/>
    <taz id="487" edges="487to103560"/>
    <taz id="488" edges="488to104389"/>
    <taz id="489" edges="489to104414"/>
    <taz id="490" edges="490to104421"/>
    <taz id="491" edges="491to103511"/>
    <taz id="492" edges="492to103525 492to103530"/>
    <taz id="493" edges="493to104307"/>
    <taz id="195" edges="101809to100244 101809to100245 101809to101800 101809to101810"/>
    <taz id="0" edges="104436to104434"/>
    <taz id="194" edges="101796to100310 101796to100311 101796to101797 101796to104441"/>
</additional>
