<additional>
    <edgeData id="limaRouXml" file="PPP.edgesinfo.xml" freq="60"/>
</additional>