<additional>
    <edgeData id="limaRouXml" file="TTFMGPP.edgesinfo.xml" freq="60"/>
</additional>